Version 4
SHEET 1 1256 680
WIRE 896 -144 848 -144
WIRE 976 -144 960 -144
WIRE 688 -48 576 -48
WIRE 848 -48 848 -144
WIRE 848 -48 768 -48
WIRE 880 -48 848 -48
WIRE 976 -48 976 -144
WIRE 976 -48 960 -48
WIRE 1056 -48 976 -48
WIRE 576 48 576 -48
WIRE 944 48 880 48
WIRE 880 144 880 48
WIRE 944 144 944 128
WIRE 768 160 768 -48
WIRE 848 160 768 160
WIRE 528 176 432 176
WIRE 1056 176 1056 -48
WIRE 1056 176 912 176
WIRE 1216 176 1056 176
WIRE 848 192 768 192
WIRE 608 224 480 224
WIRE 880 224 880 208
WIRE 528 240 528 176
WIRE 1072 240 1008 240
WIRE 480 256 480 224
WIRE 496 256 480 256
WIRE 608 272 608 224
WIRE 608 272 560 272
WIRE 640 272 608 272
WIRE 688 272 640 272
WIRE 768 272 768 192
WIRE 1072 272 1072 240
WIRE 496 288 416 288
WIRE 1008 304 1008 240
WIRE 416 320 416 288
WIRE 1184 320 1040 320
WIRE 848 336 848 272
WIRE 976 336 848 336
WIRE 1120 352 1040 352
WIRE 1184 368 1184 320
WIRE 1216 368 1216 176
WIRE 1216 368 1184 368
WIRE 848 496 848 336
WIRE 1120 496 1120 352
WIRE 1120 496 848 496
WIRE 768 592 768 272
WIRE 912 592 768 592
WIRE 928 592 912 592
WIRE 1040 592 992 592
WIRE 1088 592 1040 592
WIRE 1184 592 1168 592
WIRE 1184 624 1184 592
FLAG 576 48 0
FLAG 640 272 V_in
FLAG 1184 624 0
FLAG 1040 592 V_out
FLAG 880 224 0
FLAG 944 144 0
FLAG 416 400 0
FLAG 912 592 V_led
FLAG 1008 448 0
FLAG 1072 272 0
FLAG 528 304 0
FLAG 432 256 0
SYMBOL res 672 -32 R270
WINDOW 0 32 56 VTop 2
WINDOW 3 0 56 VBottom 2
SYMATTR InstName R1
SYMATTR Value 1k
SYMBOL res 864 -32 R270
WINDOW 0 32 56 VTop 2
WINDOW 3 0 56 VBottom 2
SYMATTR InstName R2
SYMATTR Value 100k
SYMBOL res 672 288 R270
WINDOW 0 32 56 VTop 2
WINDOW 3 0 56 VBottom 2
SYMATTR InstName R3
SYMATTR Value 1k
SYMBOL res 864 256 R90
WINDOW 0 0 56 VBottom 2
WINDOW 3 32 56 VTop 2
SYMATTR InstName R4
SYMATTR Value 100k
SYMBOL LED 928 608 R270
WINDOW 0 72 32 VTop 2
WINDOW 3 0 32 VBottom 2
SYMATTR InstName D1
SYMBOL res 1072 608 R270
WINDOW 0 32 56 VTop 2
WINDOW 3 0 56 VBottom 2
SYMATTR InstName R5
SYMATTR Value 100
SYMBOL voltage 944 32 R0
SYMATTR InstName V1
SYMATTR Value 15
SYMBOL voltage 416 304 R0
SYMATTR InstName V2
SYMBOL cap 960 -160 R90
WINDOW 0 0 32 VBottom 2
WINDOW 3 32 32 VTop 2
SYMATTR InstName C1
SYMATTR Value 10p
SYMBOL voltage 1008 352 R0
SYMATTR InstName V3
SYMATTR Value 15
SYMBOL Opamps/LT1178A 880 112 R0
SYMATTR InstName U1
SYMBOL Opamps/LT1178A 1008 400 R180
SYMATTR InstName U2
SYMBOL Opamps/OP07 528 208 R0
SYMATTR InstName U3
SYMBOL voltage 432 160 R0
SYMATTR InstName V4
SYMATTR Value 15
TEXT 328 16 Left 2 !.dc V2 0 3.3 0.01
